# File generated by Flopy version 3.10.0 on 07/14/2026 at 17:19:34.
BEGIN options
END options

BEGIN griddata
  icelltype
    CONSTANT  1
  k
    CONSTANT      10.00000000
END griddata

