# File generated by Flopy version 3.10.0 on 07/14/2026 at 17:19:34.
BEGIN options
  BUDGET  FILEOUT  groundwater.cbc
  HEAD  FILEOUT  groundwater.hds
END options

BEGIN period  1
  SAVE  HEAD  ALL
  SAVE  BUDGET  ALL
END period  1

