# File generated by Flopy version 3.10.0 on 07/14/2026 at 17:19:34.
BEGIN options
  READASARRAYS
END options

BEGIN period  1
  recharge
    CONSTANT       0.00706139
END period  1

