# File generated by Flopy version 3.10.0 on 07/14/2026 at 17:19:34.
BEGIN options
END options

BEGIN griddata
  strt
    CONSTANT      11.63933333
END griddata

